<?xml version="1.0" encoding="UTF-8"?>

<!-- generated on Fri Oct 20 00:35:30 2017 by SUMO netconvert Version 0.21.0
<?xml version="1.0" encoding="UTF-8"?>

<configuration xmlns:xsi="http://www.w3.org/2001/XMLSchema-instance" xsi:noNamespaceSchemaLocation="http://sumo-sim.org/xsd/netconvertConfiguration.xsd">

    <input>
        <node-files value="urban.nod.xml"/>
        <edge-files value="urban.edg.xml"/>
    </input>

    <output>
        <output-file value="urban.net.xml"/>
    </output>

</configuration>
-->

<net version="0.13" xmlns:xsi="http://www.w3.org/2001/XMLSchema-instance" xsi:noNamespaceSchemaLocation="http://sumo-sim.org/xsd/net_file.xsd">

    <location netOffset="0.00,0.00" convBoundary="0.00,0.00,1000.00,1000.00" origBoundary="0.00,0.00,1000.00,1000.00" projParameter="!"/>

    <edge id=":1_0" function="internal">
        <lane id=":1_0_0" index="0" speed="15.00" length="12.80" shape="498.55,-8.25 502.35,-8.25 504.95,-8.25 507.55,-8.25 511.35,-8.25"/>
        <lane id=":1_0_1" index="1" speed="15.00" length="12.80" shape="498.55,-4.95 502.35,-4.95 504.95,-4.95 507.55,-4.95 511.35,-4.95"/>
        <lane id=":1_0_2" index="2" speed="15.00" length="12.80" shape="498.55,-1.65 502.35,-1.65 504.95,-1.65 507.55,-1.65 511.35,-1.65"/>
    </edge>
    <edge id=":1_3" function="internal">
        <lane id=":1_3_0" index="0" speed="15.00" length="7.91" shape="498.55,-1.65 502.79,-1.46 505.82,-0.87 507.64,0.09 508.25,1.45"/>
        <lane id=":1_3_1" index="1" speed="15.00" length="7.91" shape="498.55,-1.65 501.35,-1.46 503.35,-0.87 504.55,0.09 504.95,1.45"/>
        <lane id=":1_3_2" index="2" speed="15.00" length="7.91" shape="498.55,-1.65 499.91,-1.46 500.88,-0.87 501.46,0.09 501.65,1.45"/>
    </edge>
    <edge id=":2_0" function="internal">
        <lane id=":2_0_0" index="0" speed="15.00" length="7.90" shape="1000.05,-8.25 1003.64,-7.74 1006.20,-6.20 1007.74,-3.64 1008.25,-0.05"/>
        <lane id=":2_0_1" index="1" speed="15.00" length="7.90" shape="1000.05,-4.95 1002.19,-4.64 1003.72,-3.72 1004.64,-2.19 1004.95,-0.05"/>
        <lane id=":2_0_2" index="2" speed="15.00" length="7.90" shape="1000.05,-1.65 1000.75,-1.55 1001.25,-1.25 1001.55,-0.75 1001.65,-0.05"/>
    </edge>
    <edge id=":3_0" function="internal">
        <lane id=":3_0_0" index="0" speed="15.00" length="7.91" shape="8.25,488.65 8.44,490.01 9.02,490.98 9.99,491.56 11.35,491.75"/>
        <lane id=":3_0_1" index="1" speed="15.00" length="7.91" shape="8.25,488.65 8.44,491.45 9.02,493.45 9.99,494.65 11.35,495.05"/>
        <lane id=":3_0_2" index="2" speed="15.00" length="7.91" shape="8.25,488.65 8.44,492.89 9.02,495.92 9.99,497.74 11.35,498.35"/>
    </edge>
    <edge id=":3_3" function="internal">
        <lane id=":3_3_0" index="0" speed="15.00" length="12.80" shape="8.25,488.65 8.25,492.45 8.25,495.05 8.25,497.65 8.25,501.45"/>
        <lane id=":3_3_1" index="1" speed="15.00" length="12.80" shape="4.95,488.65 4.95,492.45 4.95,495.05 4.95,497.65 4.95,501.45"/>
        <lane id=":3_3_2" index="2" speed="15.00" length="12.80" shape="1.65,488.65 1.65,492.45 1.65,495.05 1.65,497.65 1.65,501.45"/>
    </edge>
    <edge id=":4_0" function="internal">
        <lane id=":4_0_0" index="0" speed="15.00" length="5.00" shape="508.25,488.65 508.44,490.01 509.02,490.98 509.99,491.56 511.35,491.75"/>
    </edge>
    <edge id=":4_1" function="internal">
        <lane id=":4_1_0" index="0" speed="15.00" length="13.35" shape="504.95,488.65 505.47,492.51 506.60,495.05 507.73,497.59 508.25,501.45"/>
        <lane id=":4_1_1" index="1" speed="15.00" length="13.35" shape="501.65,488.65 502.17,492.51 503.30,495.05 504.43,497.59 504.95,501.45"/>
    </edge>
    <edge id=":4_3" function="internal">
        <lane id=":4_3_0" index="0" speed="15.00" length="13.35" shape="498.55,491.75 502.41,492.27 504.95,493.40 507.49,494.53 511.35,495.05"/>
        <lane id=":4_3_1" index="1" speed="15.00" length="13.35" shape="498.55,495.05 502.41,495.57 504.95,496.70 507.49,497.83 511.35,498.35"/>
    </edge>
    <edge id=":4_5" function="internal">
        <lane id=":4_5_0" index="0" speed="15.00" length="6.42" shape="498.55,498.35 501.35,498.54 503.35,499.13 504.55,500.09 504.95,501.45"/>
        <lane id=":4_5_1" index="1" speed="15.00" length="6.42" shape="498.55,498.35 499.91,498.54 500.88,499.13 501.46,500.09 501.65,501.45"/>
    </edge>
    <edge id=":5_0" function="internal">
        <lane id=":5_0_0" index="0" speed="15.00" length="12.80" shape="1008.25,488.65 1008.25,492.45 1008.25,495.05 1008.25,497.65 1008.25,501.45"/>
        <lane id=":5_0_1" index="1" speed="15.00" length="12.80" shape="1004.95,488.65 1004.95,492.45 1004.95,495.05 1004.95,497.65 1004.95,501.45"/>
        <lane id=":5_0_2" index="2" speed="15.00" length="12.80" shape="1001.65,488.65 1001.65,492.45 1001.65,495.05 1001.65,497.65 1001.65,501.45"/>
    </edge>
    <edge id=":5_3" function="internal">
        <lane id=":5_3_0" index="0" speed="15.00" length="3.77" shape="998.55,491.75 1001.65,492.19"/>
        <lane id=":5_3_1" index="1" speed="15.00" length="3.77" shape="998.55,495.05 1001.35,495.45 1001.65,495.63"/>
        <lane id=":5_3_2" index="2" speed="15.00" length="3.77" shape="998.55,498.35 999.91,498.54 1000.88,499.13 1001.46,500.09 1001.65,501.45"/>
    </edge>
    <edge id=":5_6" function="internal">
        <lane id=":5_6_0" index="0" speed="15.00" length="12.51" shape="1001.65,492.19 1002.79,492.36 1005.83,494.18 1007.64,497.21 1008.25,501.45"/>
    </edge>
    <edge id=":5_7" function="internal">
        <lane id=":5_7_0" index="0" speed="15.00" length="7.14" shape="1001.65,495.63 1003.35,496.65 1004.55,498.65 1004.95,501.45"/>
    </edge>
    <edge id=":6_0" function="internal">
        <lane id=":6_0_0" index="0" speed="15.00" length="7.90" shape="8.25,990.15 8.35,990.85 8.65,991.35 9.15,991.65 9.85,991.75"/>
        <lane id=":6_0_1" index="1" speed="15.00" length="7.90" shape="4.95,990.15 5.26,992.29 6.17,993.82 7.71,994.74 9.85,995.05"/>
        <lane id=":6_0_2" index="2" speed="15.00" length="7.90" shape="1.65,990.15 2.16,993.74 3.70,996.30 6.26,997.84 9.85,998.35"/>
    </edge>
    <edge id=":7_0" function="internal">
        <lane id=":7_0_0" index="0" speed="15.00" length="10.32" shape="508.25,988.65 508.44,990.01 509.02,990.98 509.99,991.56 511.35,991.75"/>
        <lane id=":7_0_1" index="1" speed="15.00" length="10.32" shape="504.95,988.65 505.35,991.45 506.55,993.45 508.55,994.65 511.35,995.05"/>
        <lane id=":7_0_2" index="2" speed="15.00" length="10.32" shape="501.65,988.65 502.26,992.89 504.07,995.92 507.11,997.74 511.35,998.35"/>
    </edge>
    <edge id=":7_3" function="internal">
        <lane id=":7_3_0" index="0" speed="15.00" length="12.80" shape="498.55,991.75 502.35,991.75 504.95,991.75 507.55,991.75 511.35,991.75"/>
        <lane id=":7_3_1" index="1" speed="15.00" length="12.80" shape="498.55,995.05 502.35,995.05 504.95,995.05 507.55,995.05 511.35,995.05"/>
        <lane id=":7_3_2" index="2" speed="15.00" length="12.80" shape="498.55,998.35 502.35,998.35 504.95,998.35 507.55,998.35 511.35,998.35"/>
    </edge>

    <edge id="a" from="0" to="1" priority="1">
        <lane id="a_0" index="0" speed="15.00" length="487.20" shape="11.35,-8.25 498.55,-8.25"/>
        <lane id="a_1" index="1" speed="15.00" length="487.20" shape="11.35,-4.95 498.55,-4.95"/>
        <lane id="a_2" index="2" speed="15.00" length="487.20" shape="11.35,-1.65 498.55,-1.65"/>
    </edge>
    <edge id="b" from="1" to="2" priority="1">
        <lane id="b_0" index="0" speed="15.00" length="488.70" shape="511.35,-8.25 1000.05,-8.25"/>
        <lane id="b_1" index="1" speed="15.00" length="488.70" shape="511.35,-4.95 1000.05,-4.95"/>
        <lane id="b_2" index="2" speed="15.00" length="488.70" shape="511.35,-1.65 1000.05,-1.65"/>
    </edge>
    <edge id="c" from="0" to="3" priority="1">
        <lane id="c_0" index="0" speed="15.00" length="487.20" shape="8.25,1.45 8.25,488.65"/>
        <lane id="c_1" index="1" speed="15.00" length="487.20" shape="4.95,1.45 4.95,488.65"/>
        <lane id="c_2" index="2" speed="15.00" length="487.20" shape="1.65,1.45 1.65,488.65"/>
    </edge>
    <edge id="d" from="1" to="4" priority="1">
        <lane id="d_0" index="0" speed="15.00" length="487.20" shape="508.25,1.45 508.25,488.65"/>
        <lane id="d_1" index="1" speed="15.00" length="487.20" shape="504.95,1.45 504.95,488.65"/>
        <lane id="d_2" index="2" speed="15.00" length="487.20" shape="501.65,1.45 501.65,488.65"/>
    </edge>
    <edge id="e" from="2" to="5" priority="1">
        <lane id="e_0" index="0" speed="15.00" length="488.70" shape="1008.25,-0.05 1008.25,488.65"/>
        <lane id="e_1" index="1" speed="15.00" length="488.70" shape="1004.95,-0.05 1004.95,488.65"/>
        <lane id="e_2" index="2" speed="15.00" length="488.70" shape="1001.65,-0.05 1001.65,488.65"/>
    </edge>
    <edge id="f" from="3" to="4" priority="1">
        <lane id="f_0" index="0" speed="15.00" length="487.20" shape="11.35,491.75 498.55,491.75"/>
        <lane id="f_1" index="1" speed="15.00" length="487.20" shape="11.35,495.05 498.55,495.05"/>
        <lane id="f_2" index="2" speed="15.00" length="487.20" shape="11.35,498.35 498.55,498.35"/>
    </edge>
    <edge id="g" from="4" to="5" priority="1">
        <lane id="g_0" index="0" speed="15.00" length="487.20" shape="511.35,491.75 998.55,491.75"/>
        <lane id="g_1" index="1" speed="15.00" length="487.20" shape="511.35,495.05 998.55,495.05"/>
        <lane id="g_2" index="2" speed="15.00" length="487.20" shape="511.35,498.35 998.55,498.35"/>
    </edge>
    <edge id="h" from="3" to="6" priority="1">
        <lane id="h_0" index="0" speed="15.00" length="488.70" shape="8.25,501.45 8.25,990.15"/>
        <lane id="h_1" index="1" speed="15.00" length="488.70" shape="4.95,501.45 4.95,990.15"/>
        <lane id="h_2" index="2" speed="15.00" length="488.70" shape="1.65,501.45 1.65,990.15"/>
    </edge>
    <edge id="i" from="4" to="7" priority="1">
        <lane id="i_0" index="0" speed="15.00" length="487.20" shape="508.25,501.45 508.25,988.65"/>
        <lane id="i_1" index="1" speed="15.00" length="487.20" shape="504.95,501.45 504.95,988.65"/>
        <lane id="i_2" index="2" speed="15.00" length="487.20" shape="501.65,501.45 501.65,988.65"/>
    </edge>
    <edge id="j" from="5" to="8" priority="1">
        <lane id="j_0" index="0" speed="15.00" length="487.20" shape="1008.25,501.45 1008.25,988.65"/>
        <lane id="j_1" index="1" speed="15.00" length="487.20" shape="1004.95,501.45 1004.95,988.65"/>
        <lane id="j_2" index="2" speed="15.00" length="487.20" shape="1001.65,501.45 1001.65,988.65"/>
    </edge>
    <edge id="k" from="6" to="7" priority="1">
        <lane id="k_0" index="0" speed="15.00" length="488.70" shape="9.85,991.75 498.55,991.75"/>
        <lane id="k_1" index="1" speed="15.00" length="488.70" shape="9.85,995.05 498.55,995.05"/>
        <lane id="k_2" index="2" speed="15.00" length="488.70" shape="9.85,998.35 498.55,998.35"/>
    </edge>
    <edge id="l" from="7" to="8" priority="1">
        <lane id="l_0" index="0" speed="15.00" length="487.20" shape="511.35,991.75 998.55,991.75"/>
        <lane id="l_1" index="1" speed="15.00" length="487.20" shape="511.35,995.05 998.55,995.05"/>
        <lane id="l_2" index="2" speed="15.00" length="487.20" shape="511.35,998.35 998.55,998.35"/>
    </edge>

    <junction id="0" type="unregulated" x="0.00" y="0.00" incLanes="" intLanes="" shape="0.05,1.45 9.85,1.45 11.35,-0.05 11.35,-9.85"/>
    <junction id="1" type="priority" x="500.00" y="0.00" incLanes="a_0 a_1 a_2" intLanes=":1_0_0 :1_0_1 :1_0_2 :1_3_0 :1_3_1 :1_3_2" shape="500.05,1.45 509.85,1.45 511.35,-0.05 511.35,-9.85 498.55,-9.85 498.55,-0.05">
        <request index="0" response="000000" foes="000000" cont="0"/>
        <request index="1" response="000000" foes="000000" cont="0"/>
        <request index="2" response="000000" foes="000000" cont="0"/>
        <request index="3" response="000000" foes="000000" cont="0"/>
        <request index="4" response="000000" foes="000000" cont="0"/>
        <request index="5" response="000000" foes="000000" cont="0"/>
    </junction>
    <junction id="2" type="priority" x="1000.00" y="0.00" incLanes="b_0 b_1 b_2" intLanes=":2_0_0 :2_0_1 :2_0_2" shape="1000.05,-0.05 1009.85,-0.05 1000.05,-9.85 1000.05,-0.05">
        <request index="0" response="000" foes="000" cont="0"/>
        <request index="1" response="000" foes="000" cont="0"/>
        <request index="2" response="000" foes="000" cont="0"/>
    </junction>
    <junction id="3" type="priority" x="0.00" y="500.00" incLanes="c_0 c_1 c_2" intLanes=":3_0_0 :3_0_1 :3_0_2 :3_3_0 :3_3_1 :3_3_2" shape="0.05,501.45 9.85,501.45 11.35,499.95 11.35,490.15 9.85,488.65 0.05,488.65">
        <request index="0" response="000000" foes="000000" cont="0"/>
        <request index="1" response="000000" foes="000000" cont="0"/>
        <request index="2" response="000000" foes="000000" cont="0"/>
        <request index="3" response="000000" foes="000000" cont="0"/>
        <request index="4" response="000000" foes="000000" cont="0"/>
        <request index="5" response="000000" foes="000000" cont="0"/>
    </junction>
    <junction id="4" type="priority" x="500.00" y="500.00" incLanes="d_0 d_1 d_2 f_0 f_1 f_2" intLanes=":4_0_0 :4_1_0 :4_1_1 :4_3_0 :4_3_1 :4_5_0 :4_5_1" shape="500.05,501.45 509.85,501.45 511.35,499.95 511.35,490.15 509.85,488.65 500.05,488.65 498.55,490.15 498.55,499.95">
        <request index="0" response="0000000" foes="0000000" cont="0"/>
        <request index="1" response="0000000" foes="1111000" cont="0"/>
        <request index="2" response="0000000" foes="1111000" cont="0"/>
        <request index="3" response="0000110" foes="0000110" cont="0"/>
        <request index="4" response="0000110" foes="0000110" cont="0"/>
        <request index="5" response="0000110" foes="0000110" cont="0"/>
        <request index="6" response="0000110" foes="0000110" cont="0"/>
    </junction>
    <junction id="5" type="priority" x="1000.00" y="500.00" incLanes="e_0 e_1 e_2 g_0 g_1 g_2" intLanes=":5_0_0 :5_0_1 :5_0_2 :5_6_0 :5_7_0 :5_3_2" shape="1000.05,501.45 1009.85,501.45 1009.85,488.65 1000.05,488.65 998.55,490.15 998.55,499.95">
        <request index="0" response="000000" foes="111000" cont="0"/>
        <request index="1" response="000000" foes="111000" cont="0"/>
        <request index="2" response="000000" foes="111000" cont="0"/>
        <request index="3" response="000111" foes="000111" cont="1"/>
        <request index="4" response="000111" foes="000111" cont="1"/>
        <request index="5" response="000111" foes="000111" cont="0"/>
    </junction>
    <junction id="6" type="priority" x="0.00" y="1000.00" incLanes="h_0 h_1 h_2" intLanes=":6_0_0 :6_0_1 :6_0_2" shape="9.85,999.95 9.85,990.15 0.05,990.15">
        <request index="0" response="000" foes="000" cont="0"/>
        <request index="1" response="000" foes="000" cont="0"/>
        <request index="2" response="000" foes="000" cont="0"/>
    </junction>
    <junction id="7" type="priority" x="500.00" y="1000.00" incLanes="i_0 i_1 i_2 k_0 k_1 k_2" intLanes=":7_0_0 :7_0_1 :7_0_2 :7_3_0 :7_3_1 :7_3_2" shape="511.35,999.95 511.35,990.15 509.85,988.65 500.05,988.65 498.55,990.15 498.55,999.95">
        <request index="0" response="000000" foes="111000" cont="0"/>
        <request index="1" response="000000" foes="111000" cont="0"/>
        <request index="2" response="000000" foes="111000" cont="0"/>
        <request index="3" response="000111" foes="000111" cont="0"/>
        <request index="4" response="000111" foes="000111" cont="0"/>
        <request index="5" response="000111" foes="000111" cont="0"/>
    </junction>
    <junction id="8" type="unregulated" x="1000.00" y="1000.00" incLanes="j_0 j_1 j_2 l_0 l_1 l_2" intLanes="" shape="1009.85,988.65 1000.05,988.65 998.55,990.15 998.55,999.95"/>

    <junction id=":5_6_0" type="internal" x="1001.65" y="492.19" incLanes=":5_3_0 e_0 e_1 e_2" intLanes=":5_0_0 :5_0_1 :5_0_2"/>
    <junction id=":5_7_0" type="internal" x="1001.65" y="495.63" incLanes=":5_3_1 e_0 e_1 e_2" intLanes=":5_0_0 :5_0_1 :5_0_2"/>

    <connection from="a" to="b" fromLane="0" toLane="0" via=":1_0_0" dir="s" state="M"/>
    <connection from="a" to="b" fromLane="1" toLane="1" via=":1_0_1" dir="s" state="M"/>
    <connection from="a" to="b" fromLane="2" toLane="2" via=":1_0_2" dir="s" state="M"/>
    <connection from="a" to="d" fromLane="2" toLane="0" via=":1_3_0" dir="l" state="M"/>
    <connection from="a" to="d" fromLane="2" toLane="1" via=":1_3_1" dir="l" state="M"/>
    <connection from="a" to="d" fromLane="2" toLane="2" via=":1_3_2" dir="l" state="M"/>
    <connection from="b" to="e" fromLane="0" toLane="0" via=":2_0_0" dir="l" state="M"/>
    <connection from="b" to="e" fromLane="1" toLane="1" via=":2_0_1" dir="l" state="M"/>
    <connection from="b" to="e" fromLane="2" toLane="2" via=":2_0_2" dir="l" state="M"/>
    <connection from="c" to="f" fromLane="0" toLane="0" via=":3_0_0" dir="r" state="M"/>
    <connection from="c" to="f" fromLane="0" toLane="1" via=":3_0_1" dir="r" state="M"/>
    <connection from="c" to="f" fromLane="0" toLane="2" via=":3_0_2" dir="r" state="M"/>
    <connection from="c" to="h" fromLane="0" toLane="0" via=":3_3_0" dir="s" state="M"/>
    <connection from="c" to="h" fromLane="1" toLane="1" via=":3_3_1" dir="s" state="M"/>
    <connection from="c" to="h" fromLane="2" toLane="2" via=":3_3_2" dir="s" state="M"/>
    <connection from="d" to="g" fromLane="0" toLane="0" via=":4_0_0" dir="r" state="M"/>
    <connection from="d" to="i" fromLane="1" toLane="0" via=":4_1_0" dir="s" state="M"/>
    <connection from="d" to="i" fromLane="2" toLane="1" via=":4_1_1" dir="s" state="M"/>
    <connection from="e" to="j" fromLane="0" toLane="0" via=":5_0_0" dir="s" state="M"/>
    <connection from="e" to="j" fromLane="1" toLane="1" via=":5_0_1" dir="s" state="M"/>
    <connection from="e" to="j" fromLane="2" toLane="2" via=":5_0_2" dir="s" state="M"/>
    <connection from="f" to="g" fromLane="0" toLane="1" via=":4_3_0" dir="s" state="m"/>
    <connection from="f" to="g" fromLane="1" toLane="2" via=":4_3_1" dir="s" state="m"/>
    <connection from="f" to="i" fromLane="2" toLane="1" via=":4_5_0" dir="l" state="m"/>
    <connection from="f" to="i" fromLane="2" toLane="2" via=":4_5_1" dir="l" state="m"/>
    <connection from="g" to="j" fromLane="0" toLane="0" via=":5_3_0" dir="l" state="m"/>
    <connection from="g" to="j" fromLane="1" toLane="1" via=":5_3_1" dir="l" state="m"/>
    <connection from="g" to="j" fromLane="2" toLane="2" via=":5_3_2" dir="l" state="m"/>
    <connection from="h" to="k" fromLane="0" toLane="0" via=":6_0_0" dir="r" state="M"/>
    <connection from="h" to="k" fromLane="1" toLane="1" via=":6_0_1" dir="r" state="M"/>
    <connection from="h" to="k" fromLane="2" toLane="2" via=":6_0_2" dir="r" state="M"/>
    <connection from="i" to="l" fromLane="0" toLane="0" via=":7_0_0" dir="r" state="M"/>
    <connection from="i" to="l" fromLane="1" toLane="1" via=":7_0_1" dir="r" state="M"/>
    <connection from="i" to="l" fromLane="2" toLane="2" via=":7_0_2" dir="r" state="M"/>
    <connection from="k" to="l" fromLane="0" toLane="0" via=":7_3_0" dir="s" state="m"/>
    <connection from="k" to="l" fromLane="1" toLane="1" via=":7_3_1" dir="s" state="m"/>
    <connection from="k" to="l" fromLane="2" toLane="2" via=":7_3_2" dir="s" state="m"/>

    <connection from=":1_0" to="b" fromLane="0" toLane="0" dir="s" state="M"/>
    <connection from=":1_0" to="b" fromLane="1" toLane="1" dir="s" state="M"/>
    <connection from=":1_0" to="b" fromLane="2" toLane="2" dir="s" state="M"/>
    <connection from=":1_3" to="d" fromLane="0" toLane="0" dir="s" state="M"/>
    <connection from=":1_3" to="d" fromLane="1" toLane="1" dir="s" state="M"/>
    <connection from=":1_3" to="d" fromLane="2" toLane="2" dir="s" state="M"/>
    <connection from=":2_0" to="e" fromLane="0" toLane="0" dir="s" state="M"/>
    <connection from=":2_0" to="e" fromLane="1" toLane="1" dir="s" state="M"/>
    <connection from=":2_0" to="e" fromLane="2" toLane="2" dir="s" state="M"/>
    <connection from=":3_0" to="f" fromLane="0" toLane="0" dir="s" state="M"/>
    <connection from=":3_0" to="f" fromLane="1" toLane="1" dir="s" state="M"/>
    <connection from=":3_0" to="f" fromLane="2" toLane="2" dir="s" state="M"/>
    <connection from=":3_3" to="h" fromLane="0" toLane="0" dir="s" state="M"/>
    <connection from=":3_3" to="h" fromLane="1" toLane="1" dir="s" state="M"/>
    <connection from=":3_3" to="h" fromLane="2" toLane="2" dir="s" state="M"/>
    <connection from=":4_0" to="g" fromLane="0" toLane="0" dir="s" state="M"/>
    <connection from=":4_1" to="i" fromLane="0" toLane="0" dir="s" state="M"/>
    <connection from=":4_1" to="i" fromLane="1" toLane="1" dir="s" state="M"/>
    <connection from=":4_3" to="g" fromLane="0" toLane="1" dir="s" state="M"/>
    <connection from=":4_3" to="g" fromLane="1" toLane="2" dir="s" state="M"/>
    <connection from=":4_5" to="i" fromLane="0" toLane="1" dir="s" state="M"/>
    <connection from=":4_5" to="i" fromLane="1" toLane="2" dir="s" state="M"/>
    <connection from=":5_0" to="j" fromLane="0" toLane="0" dir="s" state="M"/>
    <connection from=":5_0" to="j" fromLane="1" toLane="1" dir="s" state="M"/>
    <connection from=":5_0" to="j" fromLane="2" toLane="2" dir="s" state="M"/>
    <connection from=":5_3" to="j" fromLane="0" toLane="0" via=":5_6_0" dir="s" state="m"/>
    <connection from=":5_6" to="j" fromLane="0" toLane="0" dir="s" state="M"/>
    <connection from=":5_3" to="j" fromLane="1" toLane="1" via=":5_7_0" dir="s" state="m"/>
    <connection from=":5_7" to="j" fromLane="0" toLane="1" dir="s" state="M"/>
    <connection from=":5_3" to="j" fromLane="2" toLane="2" dir="s" state="M"/>
    <connection from=":6_0" to="k" fromLane="0" toLane="0" dir="s" state="M"/>
    <connection from=":6_0" to="k" fromLane="1" toLane="1" dir="s" state="M"/>
    <connection from=":6_0" to="k" fromLane="2" toLane="2" dir="s" state="M"/>
    <connection from=":7_0" to="l" fromLane="0" toLane="0" dir="s" state="M"/>
    <connection from=":7_0" to="l" fromLane="1" toLane="1" dir="s" state="M"/>
    <connection from=":7_0" to="l" fromLane="2" toLane="2" dir="s" state="M"/>
    <connection from=":7_3" to="l" fromLane="0" toLane="0" dir="s" state="M"/>
    <connection from=":7_3" to="l" fromLane="1" toLane="1" dir="s" state="M"/>
    <connection from=":7_3" to="l" fromLane="2" toLane="2" dir="s" state="M"/>

</net>
