<!-- urban.nod.xml -->

<nodes>
	<node id="0" x="0" y="0" />

	<node id="1" x="500" y="0" />

	<node id="2" x="1000" y="0" />

	<node id="3" x="0" y="500" />

	<node id="4" x="500" y="500" />

	<node id="5" x="1000" y="500" />

	<node id="6" x="0" y="1000" />

	<node id="7" x="500" y="1000" />

	<node id="8" x="1000" y="1000" />

</nodes>