<!-- urban.flow.xml -->

<flows>

	<flow id="0" from="a" to="l" begin="0" end="70" number="10"/>

	<flow id="1" from="f" to="l" begin="10" end="80" number="10"/>

	<flow id="c" from="k" to="l" begin="20" end="90" number="10"/>

</flows>