<?xml version="1.0" encoding="UTF-8"?>

<!-- generated on Fri Oct 20 00:40:15 2017 by SUMO duarouter Version 0.21.0
<?xml version="1.0" encoding="UTF-8"?>

<configuration xmlns:xsi="http://www.w3.org/2001/XMLSchema-instance" xsi:noNamespaceSchemaLocation="http://sumo-sim.org/xsd/duarouterConfiguration.xsd">

    <input>
        <net-file value="urban.net.xml"/>
        <flow-files value="urban.flow.xml"/>
    </input>

    <output>
        <output-file value="urban.rou.xml"/>
    </output>

</configuration>
-->

<routes xmlns:xsi="http://www.w3.org/2001/XMLSchema-instance" xsi:noNamespaceSchemaLocation="http://sumo-sim.org/xsd/routes_file.xsd">
    <vehicle id="0.0" depart="0.00">
        <route edges="a d i l"/>
    </vehicle>
    <vehicle id="0.1" depart="7.00">
        <route edges="a d i l"/>
    </vehicle>
    <vehicle id="1.0" depart="10.00">
        <route edges="f i l"/>
    </vehicle>
    <vehicle id="0.2" depart="14.00">
        <route edges="a d i l"/>
    </vehicle>
    <vehicle id="1.1" depart="17.00">
        <route edges="f i l"/>
    </vehicle>
    <vehicle id="c.0" depart="20.00">
        <route edges="k l"/>
    </vehicle>
    <vehicle id="0.3" depart="21.00">
        <route edges="a d i l"/>
    </vehicle>
    <vehicle id="1.2" depart="24.00">
        <route edges="f i l"/>
    </vehicle>
    <vehicle id="c.1" depart="27.00">
        <route edges="k l"/>
    </vehicle>
    <vehicle id="0.4" depart="28.00">
        <route edges="a d i l"/>
    </vehicle>
    <vehicle id="1.3" depart="31.00">
        <route edges="f i l"/>
    </vehicle>
    <vehicle id="c.2" depart="34.00">
        <route edges="k l"/>
    </vehicle>
    <vehicle id="0.5" depart="35.00">
        <route edges="a d i l"/>
    </vehicle>
    <vehicle id="1.4" depart="38.00">
        <route edges="f i l"/>
    </vehicle>
    <vehicle id="c.3" depart="41.00">
        <route edges="k l"/>
    </vehicle>
    <vehicle id="0.6" depart="42.00">
        <route edges="a d i l"/>
    </vehicle>
    <vehicle id="1.5" depart="45.00">
        <route edges="f i l"/>
    </vehicle>
    <vehicle id="c.4" depart="48.00">
        <route edges="k l"/>
    </vehicle>
    <vehicle id="0.7" depart="49.00">
        <route edges="a d i l"/>
    </vehicle>
    <vehicle id="1.6" depart="52.00">
        <route edges="f i l"/>
    </vehicle>
    <vehicle id="c.5" depart="55.00">
        <route edges="k l"/>
    </vehicle>
    <vehicle id="0.8" depart="56.00">
        <route edges="a d i l"/>
    </vehicle>
    <vehicle id="1.7" depart="59.00">
        <route edges="f i l"/>
    </vehicle>
    <vehicle id="c.6" depart="62.00">
        <route edges="k l"/>
    </vehicle>
    <vehicle id="0.9" depart="63.00">
        <route edges="a d i l"/>
    </vehicle>
    <vehicle id="1.8" depart="66.00">
        <route edges="f i l"/>
    </vehicle>
    <vehicle id="c.7" depart="69.00">
        <route edges="k l"/>
    </vehicle>
    <vehicle id="1.9" depart="73.00">
        <route edges="f i l"/>
    </vehicle>
    <vehicle id="c.8" depart="76.00">
        <route edges="k l"/>
    </vehicle>
    <vehicle id="c.9" depart="83.00">
        <route edges="k l"/>
    </vehicle>
</routes>
